126
config_type=Defect Lattice="11.33440000 0.00000000 0.00000000 0.00000000 11.33440000 0.00000000 0.00000000 0.00000000 11.33440000"Properties=species:S:1:pos:R:3:desc1:R:1:descNorm:R:1:clsId:I:1:MahDistance:R:1:pbc="T T T" dipole="0.0 0.0 0.0" 
Fe  1.25238340  1.37808837  1.30120314   0.00000000  82.87557744  -1   12.42515043
Fe  1.45221908  1.41903271  4.27137696   0.31574491  99.97807797  -1   8.63927896
Fe  -0.03792011  0.07777982  5.75852457   0.54124286  112.25197794  -1   6.05939312
Fe  1.46929723  1.54318075  7.14828269   0.67231170  117.59480488  1   2.23790921
Fe  0.06823191  0.11647655  8.54134633   0.61765883  116.80195857  -1   7.10484859
Fe  1.47371835  1.47980410  10.06973210   0.49678911  108.55793428  -1   9.46797911
Fe  -0.07833695  2.74047256  -0.13907360   0.66764351  118.91276342  -1   8.04576942
Fe  1.29069870  4.18462065  1.38150662   0.59090531  114.58362380  1   0.60661054
Fe  0.08247596  2.75643877  2.95155100   0.56344457  112.87252167  -1   7.05304938
Fe  1.29368113  4.25268051  4.26268147   0.58332337  112.38979937  1   1.39497877
Fe  -0.07684355  2.73552157  5.70660491   0.77000730  124.41939974  1   0.59189236
Fe  1.30069998  4.42793508  7.21803249   0.67483013  116.69503696  1   1.65793564
Fe  0.07680116  2.95853994  8.53667366   0.65029732  116.94806083  1   1.01881246
Fe  1.40209341  4.28841433  10.06340940   0.70566430  119.76926608  1   0.60054851
Fe  -0.13784105  5.64437664  0.04674929   0.58627898  113.21196687  1   1.04653513
Fe  1.48345781  7.10915438  1.43914043   0.61047723  114.58082631  1   0.35427849
Fe  -0.10075427  5.53981960  2.84920493   0.57699462  112.85091400  1   1.03390051
Fe  1.54447469  7.15949682  4.32885105   0.55441952  111.09251675  1   0.58909911
Fe  0.09806615  5.61027122  5.65705615   0.60897664  113.93315790  1   1.37988532
Fe  1.43549793  7.23948023  7.10278112   0.93831618  133.26191927  1   0.87659121
Fe  -0.00316356  5.77794688  8.48583808   0.81106411  126.25682858  1   1.24338564
Fe  1.48618001  7.14148455  10.03115038   0.71785709  120.64130082  1   0.58255175
Fe  -0.01882006  8.49509378  -0.00679505   0.43315376  106.65027876  -1   6.07122582
Fe  1.42378802  10.02625487  1.31784162   0.03213108  84.71111665  -1   13.87378528
Fe  0.06242836  8.39793301  2.82799920   0.39905022  104.73120785  -1   5.63928994
Fe  1.33727530  9.95092145  4.15642077   0.17213253  91.35867550  -1   9.28021917
Fe  0.09794343  8.50067071  5.64681101   0.54548032  110.86004451  1   0.44257294
Fe  1.42228034  9.95312005  7.22138152   0.88463485  130.25455104  1   1.21632956
Fe  -0.06025434  8.49975222  8.54930204   0.84396161  128.19685854  1   0.67448254
Fe  1.43993638  9.90104569  9.95712793   0.47640548  109.00122609  -1   8.65153803
Fe  2.74962857  -0.04687316  0.00912259   0.54816072  112.49734103  -1   8.07270244
Fe  4.25270093  1.49438730  1.41817690   0.66184969  118.07132431  1   0.56133728
Fe  2.82878466  0.12878756  2.73639082   0.52917634  111.77907516  -1   6.72386209
Fe  4.14157464  1.41415107  4.27510148   0.72555127  121.58872134  1   0.39189421
Fe  2.79203172  -0.05805729  5.84796966   0.64740421  117.12136769  1   1.64202061
Fe  4.35711367  1.49855284  6.98455509   0.61805114  115.38678281  1   1.25463503
Fe  2.73477346  0.18381819  8.34367426   0.84547496  127.28638140  1   2.66864698
Fe  4.24916896  1.42800594  9.92574641   0.76403690  122.94979824  1   1.23598654
Fe  2.77234172  2.88050873  -0.10740966   0.72575681  120.36563625  1   1.23323273
Fe  4.34659603  4.23687010  1.21919411   0.65421013  117.24517542  1   0.96505391
Fe  2.87931607  2.88912775  2.90895679   0.56217289  112.89493013  1   0.96482861
Fe  4.26963817  4.38554011  4.30348549   0.61412128  115.83359531  1   1.37472761
Fe  2.87285945  2.92938945  5.67576508   0.49979532  108.37613504  1   0.76359403
Fe  4.20946886  4.27271101  7.10949521   0.71822962  120.15905692  1   1.84848749
Fe  3.04356798  2.85869241  8.57096268   0.72809908  120.99261644  1   1.73025000
Fe  4.35233814  4.27532155  9.94067157   0.90195537  131.05834973  1   2.05395705
Fe  2.78784302  5.73881849  -0.00467512   0.68784997  118.99350258  1   1.09164711
Fe  4.24743184  7.06365031  1.39318432   0.68705030  119.69890004  1   0.26512108
Fe  2.83546690  5.63330501  2.78824273   0.46721014  107.04583391  1   0.67345676
Fe  4.31249316  6.94501668  4.15443250   0.46759973  107.26933654  1   2.20317130
Fe  2.96278941  5.76501331  5.92358201   0.64364134  115.59822469  1   2.39206782
Fe  4.31334294  7.23828349  7.02677405   0.61997859  114.63530390  1   1.21176602
Fe  2.72313070  5.80436782  8.43450024   0.67641242  118.46761385  1   1.17597733
Fe  4.29935073  7.06615606  9.89727402   0.62432757  116.07117329  1   0.37556394
Fe  2.85143519  8.63459933  -0.05626353   0.77677609  124.44414120  1   0.58784633
Fe  4.27501666  10.08007622  1.50469912   0.72047743  121.10970437  1   0.64596038
Fe  2.71521012  8.51737434  2.85477688   0.65898568  117.02737767  1   0.61578872
Fe  4.14863668  9.95438821  4.09926057   0.56873054  112.40186717  1   0.90578827
Fe  2.86101356  8.60898355  5.75312755   0.75225748  122.77865323  1   1.44796758
Fe  4.18694766  9.92586746  7.16692819   0.89239452  130.80696318  1   1.32134642
Fe  2.74944531  8.54323811  8.49068171   0.93357316  132.85892765  1   1.05468418
Fe  4.16049105  9.96215871  9.79351598   0.82681495  127.22311851  1   0.79793297
Fe  5.68646575  -0.03770143  -0.02387413   0.74300036  123.08816347  1   0.92062815
Fe  7.08016863  1.35189040  1.34385324   0.65258010  117.89158401  1   1.27064266
Fe  5.56593117  0.12845591  2.91074359   0.75941988  123.10864435  1   0.38041523
Fe  7.05983949  1.36494315  4.34359394   0.62589811  115.06932367  1   0.76126751
Fe  5.68692217  -0.11189152  5.55857754   0.59679717  113.82928648  1   1.76244453
Fe  7.27595810  1.51934253  7.15699801   0.81388841  126.21496180  1   2.92807971
Fe  5.61837366  0.04146185  8.56165762   0.77299415  123.01924770  1   2.06194297
Fe  7.20659107  1.36440183  9.69356585   0.79271829  124.49169636  1   2.88993862
Fe  5.68209139  2.63105916  -0.16161568   0.75748770  122.53772817  1   1.62734310
Fe  7.07249917  3.98670471  1.35211663   0.68464683  119.23889461  1   0.75435971
Fe  5.62281638  2.91092465  2.92408136   0.66942375  119.04159580  1   0.71886142
Fe  6.99615246  4.30238958  4.31362747   0.77419345  123.35573297  1   1.67451337
Fe  5.85000258  2.80519941  5.62888566   0.68224551  117.90292036  1   1.03408332
Fe  7.06159826  4.33663631  7.09780816   0.86857712  128.84529055  1   1.33672019
Fe  5.65945887  2.94572230  8.47829586   0.96077432  135.78227431  1   2.52770673
Fe  7.05591265  4.30360235  9.90996629   0.89171912  130.91868489  1   1.09845398
Fe  5.61268807  5.66523670  -0.01278248   0.91792595  132.07243809  1   2.48993129
Fe  7.02032715  7.00154469  1.33729553   0.72901772  121.45220641  1   0.92007872
Fe  5.75592279  5.51710258  2.65806464   0.77227704  123.88593019  1   1.26611449
Fe  7.09853223  6.90945789  4.29112976   0.56978364  111.78525791  1   1.88428453
Fe  5.80388938  5.71480898  5.71225268   0.69096210  118.77487352  1   1.56473445
Fe  7.15276503  7.17424836  7.16816205   0.64028912  115.73170326  1   0.88345904
Fe  5.72258318  5.50750640  8.54210589   0.76588006  122.22704307  1   1.92864102
Fe  7.10941422  6.96338940  9.99605044   0.81774905  126.85607569  1   0.80452969
Fe  5.57019493  8.59796994  -0.06885298   0.65606032  118.82442692  1   1.24846577
Fe  7.04375536  9.95086739  1.46536572   0.67444340  118.86415252  1   0.28416723
Fe  5.55737156  8.45552478  2.77936493   0.43090452  104.34029768  1   0.83266748
Fe  7.13448138  9.84114545  4.26461964   0.56981732  112.26503635  1   0.92136965
Fe  5.74031857  8.74596638  5.81648113   0.51250742  108.86504680  1   2.97185344
Fe  7.13528248  10.17756309  7.25608817   0.83676267  126.19976288  1   3.52204898
Fe  5.65045798  8.62553795  8.54432889   0.75275945  122.91454667  1   0.96841054
Fe  7.00949375  9.98593250  9.78802260   0.82646765  126.90561195  1   2.07329115
Fe  8.47898567  -0.13091016  0.03482203   0.52638084  111.89201231  -1   6.93060793
Fe  9.87602338  1.29671290  1.44201606   0.04136770  86.85876205  -1   13.54465761
Fe  8.42337619  -0.06266357  2.85643217   0.49808832  110.14786672  -1   5.70324047
Fe  9.96640444  1.24806075  4.25652304   0.38982751  103.68825530  -1   10.41570122
Fe  8.64063483  -0.06641746  5.66629531   0.86098815  129.15529710  1   0.81211621
Fe  9.91199876  1.25339164  7.15881714   0.97240452  133.93598805  1   2.07093732
Fe  8.66758375  -0.06223501  8.50012091   1.00000000  135.75928120  -1   4.85182750
Fe  9.95849626  1.34084190  9.91528951   0.38634199  102.59304789  -1   10.12342633
Fe  8.50102752  2.69578464  -0.12273837   0.71272936  120.78275620  1   0.46188742
Fe  9.94590893  3.88466302  1.37960450   0.73953018  121.54830119  1   2.11554742
Fe  8.53389360  2.77840633  2.88024633   0.59192286  113.59258454  1   0.44119015
Fe  9.98787473  4.09993539  4.20527550   0.75597492  122.88093968  1   0.73504467
Fe  8.56193894  2.73003864  5.68335444   0.78413514  125.50004730  1   1.25567840
Fe  9.97119120  4.23900486  7.05890115   0.71780707  121.26929014  1   0.41257275
Fe  8.49136026  2.95359450  8.39957477   0.77884501  123.55496933  1   0.70427957
Fe  9.89276185  4.27427917  9.89561003   0.68872848  119.50985119  1   0.56208224
Fe  8.44763699  5.60348453  0.06605879   0.70500036  120.20305215  1   0.81094863
Fe  9.91236954  7.06924502  1.34017893   0.60745053  114.74935547  1   1.36942507
Fe  8.55557735  5.55265149  2.69568730   0.67531174  120.70634596  1   2.74208497
Fe  9.83035897  7.07884878  4.23012359   0.48550091  107.88963575  1   0.51627003
Fe  8.54423992  5.59943863  5.56749244   0.62637600  115.38146795  1   0.84392309
Fe  9.95737801  7.11251213  7.06692021   0.73334105  122.36638943  1   1.00248899
Fe  8.53776181  5.69657813  8.44164753   0.85624457  129.28543461  1   0.90317707
Fe  9.84971429  7.11644328  9.79842170   0.81220421  125.59037609  1   1.03228881
Fe  8.36635277  8.46672802  -0.00339998   0.72157496  121.88022459  1   0.38789945
Fe  9.83532156  9.84316883  1.38660477   0.00905114  84.00953601  -1   13.58638958
Fe  8.40635569  8.29128545  2.75998300   0.58699380  113.37219072  1   0.58149279
Fe  9.84999845  9.83586960  4.14528143   0.22923846  95.65029192  -1   7.88192022
Fe  8.44469141  8.54830350  5.81813201   0.54869493  111.18182638  1   0.83008441
Fe  9.97143918  9.93953856  7.19186579   0.81082918  126.30382732  1   1.45418885
Fe  8.44476495  8.38574276  8.59104696   0.90329758  130.64619896  1   1.45967043
Fe  9.90307614  9.87909171  9.89602107   0.42156398  105.61303100  -1   8.80483395
